<?xml version="1.0" encoding="UTF-8"?>

<!-- generated on 2026-04-22 02:45:09 by Eclipse SUMO netedit Version 1.24.0
-->

<routes xmlns:xsi="http://www.w3.org/2001/XMLSchema-instance" xsi:noNamespaceSchemaLocation="http://sumo.dlr.de/xsd/routes_file.xsd">
    <!-- Vehicles, persons and containers (sorted by depart) -->
    <flow id="f_0" begin="0.00" from="501781289#0" to="501781289#14.290" via="501781289#1 501781289#2 501781289#3 501781289#4 501781289#5 501781289#6 501781289#7 501781289#8 501781289#9 501781289#10 501781289#11 501781289#12 E6 501781289#14" end="3600.00" vehsPerHour="1800"/>
    <flow id="f_1" begin="0.00" color="red" from="501781289#0" to="1280176755#0" via="501781289#1 501781289#2 501781289#3 501781289#4 501781289#5 501781289#6 501781289#7 501781289#8 501781289#9 501781289#10 501781289#11 501781289#12 E6 501781289#14 39170471#1 502130698#0 502130698#1 E1 E2 70613552#1 70613552#6 70613552#12 1280176740#2 1280176743#1 1280176739#1 39724871#0 39724871#4 39724871#10 39724871#13 39724871#14 1105246538#0 1105246538#2 1105246538#3 502102943#5-AddedOnRampEdge 502102943#5" end="3600.00" vehsPerHour="1800"/>
</routes>
