<?xml version="1.0" encoding="UTF-8"?>

<!-- generated on 2026-04-23T15:54:10.325060+04:00 by Eclipse SUMO polyconvert 1.26.0
<polyconvertConfiguration xmlns:xsi="http://www.w3.org/2001/XMLSchema-instance" xsi:noNamespaceSchemaLocation="http://sumo.dlr.de/xsd/polyconvertConfiguration.xsd">

    <input>
        <net-file value="crossroad.net.xml"/>
        <osm-files value="crossroad.osm"/>
    </input>

    <output>
        <output-file value="crossroad.poly.xml"/>
    </output>

</polyconvertConfiguration>
-->

<additional xmlns:xsi="http://www.w3.org/2001/XMLSchema-instance" xsi:noNamespaceSchemaLocation="http://sumo.dlr.de/xsd/additional_file.xsd">
    <location netOffset="-333961.29,-2798491.70" convBoundary="-1847.27,-16849.50,27952.71,9439.32" origBoundary="55.332201,25.142645,55.629332,25.379341" projParameter="+proj=utm +zone=40 +ellps=WGS84 +datum=WGS84 +units=m +no_defs"/>

    <poly id="1090493976" type="building" color="255,230,230" fill="1" layer="-1.00" shape="3424.870679,1653.539888 3428.392126,1657.474342 3422.274521,1662.876491 3419.076455,1659.037839 3424.870679,1653.539888"/>
    <poly id="1090493976#1" type="shop" color="237,199,255" fill="1" layer="-1.00" shape="3424.870679,1653.539888 3428.392126,1657.474342 3422.274521,1662.876491 3419.076455,1659.037839 3424.870679,1653.539888"/>
    <poly id="1090493977" type="building" color="255,230,230" fill="1" layer="-1.00" shape="3440.214288,1611.569671 3453.314264,1626.555029 3458.506373,1622.061349 3445.406533,1607.087062 3440.214288,1611.569671"/>
    <poly id="1090493978" type="building" color="255,230,230" fill="1" layer="-1.00" shape="3458.506373,1622.061349 3462.911111,1618.241825 3457.295383,1611.817958 3447.891752,1601.075124 3445.818933,1602.872549 3434.669324,1590.134621 3427.145155,1596.639341 3440.214288,1611.569671 3445.406533,1607.087062 3458.506373,1622.061349"/>
    <poly id="1090493979" type="building" color="255,230,230" fill="1" layer="-1.00" shape="3491.040906,1571.055046 3482.478285,1578.292300 3482.815341,1578.687036 3463.178175,1595.285530 3467.161371,1599.934482 3486.240321,1583.807986 3486.863290,1584.531609 3495.974188,1576.833564 3491.040906,1571.055046"/>
    <poly id="1090493980" type="building" color="255,230,230" fill="1" layer="-1.00" shape="3510.632962,1605.027008 3506.527231,1600.235511 3485.355992,1618.215020 3489.461727,1623.006512 3510.632962,1605.027008"/>
    <poly id="1090493981" type="building" color="255,230,230" fill="1" layer="-1.00" shape="3505.729141,1596.678096 3508.794306,1600.352203 3518.256656,1592.572394 3509.714598,1582.295481 3505.138009,1586.061670 3510.614770,1592.653396 3505.729141,1596.678096"/>
    <poly id="1090493982" type="building" color="255,230,230" fill="1" layer="-1.00" shape="3434.122180,1675.052105 3441.422769,1683.416410 3487.884199,1643.342095 3480.593688,1634.977644 3434.122180,1675.052105"/>
    <poly id="1090493983" type="building" color="255,230,230" fill="1" layer="-1.00" shape="3507.462539,1655.291672 3545.656543,1622.694973 3530.312508,1604.479715 3495.724312,1633.809380 3496.086784,1641.326796 3507.462539,1655.291672"/>
    <poly id="1090493986" type="building" color="255,230,230" fill="1" layer="-1.00" shape="3559.759662,1725.980047 3565.238801,1721.073073 3559.809593,1715.078953 3557.452108,1712.470852 3551.982902,1717.366632 3559.759662,1725.980047"/>
    <poly id="1090493987" type="building" color="255,230,230" fill="1" layer="-1.00" shape="3532.506184,1637.786192 3556.708002,1664.912020 3558.601066,1663.238633 3569.989529,1653.186875 3545.787721,1626.061025 3532.506184,1637.786192"/>
    <poly id="1090493989" type="building" color="255,230,230" fill="1" layer="-1.00" shape="3544.068701,1739.971939 3556.796601,1729.106430 3508.993621,1673.717656 3496.265701,1684.583208 3544.068701,1739.971939"/>
    <poly id="1090493998" type="building" color="255,230,230" fill="1" layer="-1.00" shape="3562.095061,1569.600767 3540.148392,1588.420353 3554.659028,1605.161246 3576.237032,1586.667377 3562.095061,1569.600767"/>
    <poly id="1090493999" type="building" color="255,230,230" fill="1" layer="-1.00" shape="3535.066840,1582.034331 3609.776739,1518.744675 3573.345725,1476.201822 3498.635732,1539.491673 3535.066840,1582.034331"/>
    <poly id="1090494002" type="building" color="255,230,230" fill="1" layer="-1.00" shape="3547.526506,1416.814922 3547.571869,1420.580805 3576.880396,1454.480130 3657.840068,1387.470969 3628.050211,1352.059621 3621.892442,1351.635263 3547.526506,1416.814922"/>
    <poly id="1090494003" type="building" color="255,230,230" fill="1" layer="-1.00" shape="3401.540091,1641.070704 3408.775101,1649.003753 3437.612740,1622.966795 3433.612609,1618.583921 3422.346494,1628.756178 3419.111620,1625.205990 3401.540091,1641.070704"/>
    <poly id="1090494004" type="building" color="255,230,230" fill="1" layer="-1.00" shape="3463.727501,1623.316667 3455.978581,1630.389045 3465.773377,1641.005314 3473.522162,1633.921865 3463.727501,1623.316667"/>
    <poly id="1090494005" type="building" color="255,230,230" fill="1" layer="-1.00" shape="3436.972911,1588.267946 3447.891752,1601.075124 3457.295383,1611.817958 3467.328646,1603.787519 3467.161371,1599.934482 3463.178175,1595.285530 3448.705279,1578.344873 3436.972911,1588.267946"/>
    <poly id="1090494006" type="building" color="255,230,230" fill="1" layer="-1.00" shape="3375.965961,1600.380367 3388.665275,1589.647980 3384.120283,1584.341159 3371.430902,1595.062353 3375.965961,1600.380367"/>
    <poly id="1090494007" type="building" color="255,230,230" fill="1" layer="-1.00" shape="3371.430902,1595.062353 3366.097987,1599.568844 3370.643115,1604.886735 3375.965961,1600.380367 3371.430902,1595.062353"/>
    <poly id="1090494008" type="building" color="255,230,230" fill="1" layer="-1.00" shape="3355.245582,1585.597763 3362.086653,1593.424764 3367.011983,1589.355219 3361.439991,1582.388051 3372.844170,1571.139538 3368.493134,1566.051938 3355.042472,1578.776322 3355.245582,1585.597763"/>
    <poly id="1090494009" type="building" color="255,230,230" fill="1" layer="-1.00" shape="3374.414211,1561.050935 3368.493134,1566.051938 3372.844170,1571.139538 3384.120283,1584.341159 3388.665275,1589.647980 3408.234911,1612.553415 3414.155979,1607.552429 3374.414211,1561.050935"/>
    <poly id="1090494010" type="building" color="255,230,230" fill="1" layer="-1.00" shape="3426.137616,1597.426929 3434.669324,1590.134621 3436.972911,1588.267946 3395.003804,1544.108492 3386.395730,1550.914325 3426.137616,1597.426929"/>
    <poly id="1090494011" type="building" color="255,230,230" fill="1" layer="-1.00" shape="3414.155979,1607.552429 3426.137616,1597.426929 3386.395730,1550.914325 3374.414211,1561.050935 3414.155979,1607.552429"/>
    <poly id="1090494012" type="building" color="255,230,230" fill="1" layer="-1.00" shape="3394.185876,1533.062768 3411.917524,1553.852370 3415.273446,1554.077775 3455.107237,1518.835635 3435.426490,1496.740145 3394.185876,1533.062768"/>
    <poly id="1090494013" type="building" color="255,230,230" fill="1" layer="-1.00" shape="3368.654304,1500.093109 3368.409977,1502.378071 3387.170216,1524.119004 3389.671146,1524.421179 3429.668011,1490.173997 3409.196300,1466.791980 3368.654304,1500.093109"/>
    <poly id="1090494014" type="building" color="255,230,230" fill="1" layer="-1.00" shape="3352.036038,1545.745515 3355.365963,1542.980227 3345.354015,1531.070553 3342.024089,1533.835842 3352.036038,1545.745515"/>
    <poly id="1090494015" type="building" color="255,230,230" fill="1" layer="-1.00" shape="3342.024089,1533.835842 3332.423372,1541.827925 3355.001184,1568.673916 3368.069516,1558.479870 3361.565894,1551.080827 3358.890320,1552.996313 3352.036038,1545.745515 3342.024089,1533.835842"/>
    <poly id="1090494016" type="building" color="255,230,230" fill="1" layer="-1.00" shape="3330.026112,1494.189304 3333.905393,1491.051820 3325.381662,1480.641857 3321.512449,1483.779222 3330.026112,1494.189304"/>
    <poly id="1090494017" type="building" color="255,230,230" fill="1" layer="-1.00" shape="3337.506530,1522.458100 3346.774878,1514.458954 3336.809054,1503.036149 3327.530768,1511.046499 3337.506530,1522.458100"/>
    <poly id="1090494018" type="building" color="255,230,230" fill="1" layer="-1.00" shape="3346.774878,1514.458954 3353.083290,1509.010161 3338.890157,1492.741977 3332.581742,1498.190776 3336.809054,1503.036149 3346.774878,1514.458954"/>
    <poly id="1090494019" type="building" color="255,230,230" fill="1" layer="-1.00" shape="3321.781907,1504.447045 3327.910956,1499.155492 3314.667626,1483.994726 3302.200365,1494.768691 3307.224239,1500.534975 3315.433632,1509.929566 3321.781907,1504.447045"/>
    <poly id="1090494020" type="building" color="255,230,230" fill="1" layer="-1.00" shape="3307.224239,1500.534975 3298.902764,1507.725128 3322.826722,1535.130874 3331.158258,1527.940615 3315.433632,1509.929566 3307.224239,1500.534975"/>
    <poly id="1090494021" type="building" color="255,230,230" fill="1" layer="-1.00" shape="3327.530768,1511.046499 3321.781907,1504.447045 3315.433632,1509.929566 3331.158258,1527.940615 3337.506530,1522.458100 3327.530768,1511.046499"/>
    <poly id="1090494022" type="building" color="255,230,230" fill="1" layer="-1.00" shape="3504.214167,1346.428157 3513.422800,1339.305001 3509.556902,1334.366599 3507.192449,1336.200758 3503.582128,1331.580532 3500.838547,1333.707280 3498.619010,1330.853813 3494.508473,1334.027263 3504.214167,1346.428157"/>
    <poly id="1090494023" type="building" color="255,230,230" fill="1" layer="-1.00" shape="3418.253188,1447.928176 3443.462623,1477.567408 3449.980400,1477.787944 3476.176380,1454.773933 3446.839997,1421.927531 3418.253188,1447.928176"/>
    <poly id="1090494024" type="building" color="255,230,230" fill="1" layer="-1.00" shape="3478.795623,1450.687916 3508.090918,1424.977968 3480.017981,1393.356980 3450.732730,1419.066865 3478.795623,1450.687916"/>
    <poly id="1090494025" type="building" color="255,230,230" fill="1" layer="-1.00" shape="3292.248130,1442.745810 3302.987109,1454.812846 3308.327862,1450.117917 3310.689329,1448.040046 3306.085322,1442.855814 3303.803599,1444.866258 3297.668496,1437.972372 3294.739148,1440.555595 3292.248130,1442.745810"/>
    <poly id="1090494026" type="building" color="255,230,230" fill="1" layer="-1.00" shape="3303.803599,1444.866258 3306.085322,1442.855814 3317.105425,1433.151701 3310.970324,1426.257809 3297.668496,1437.972372 3303.803599,1444.866258"/>
    <poly id="1090494027" type="building" color="255,230,230" fill="1" layer="-1.00" shape="3314.802737,1428.416048 3321.126413,1435.916943 3332.581474,1426.373762 3326.257667,1418.861786 3314.802737,1428.416048"/>
    <poly id="1090494028" type="building" color="255,230,230" fill="1" layer="-1.00" shape="3288.726462,1433.793169 3294.739148,1440.555595 3297.668496,1437.972372 3310.970324,1426.257809 3324.850126,1414.037790 3318.837445,1407.275351 3288.726462,1433.793169"/>
    <poly id="1090494029" type="building" color="255,230,230" fill="1" layer="-1.00" shape="3225.292846,1437.627197 3244.332473,1459.962778 3277.467104,1432.012570 3258.427500,1409.676945 3225.292846,1437.627197"/>
    <poly id="1090494030" type="building" color="255,230,230" fill="1" layer="-1.00" shape="3137.828712,1544.520046 3150.769081,1559.595685 3157.955644,1553.493681 3144.773774,1538.432029 3137.828712,1544.520046"/>
    <poly id="1090494031" type="building" color="255,230,230" fill="1" layer="-1.00" shape="3144.773774,1538.432029 3131.438711,1523.194994 3124.541178,1529.049811 3137.828712,1544.520046 3144.773774,1538.432029"/>
    <poly id="1090494032" type="building" color="255,230,230" fill="1" layer="-1.00" shape="3225.642599,1574.222722 3255.679939,1548.314894 3223.698904,1511.634732 3193.661667,1537.553704 3225.642599,1574.222722"/>
    <poly id="1090494033" type="building" color="255,230,230" fill="1" layer="-1.00" shape="3273.121639,1618.492434 3278.591157,1624.474884 3286.938338,1616.918837 3281.458887,1610.947581 3273.121639,1618.492434"/>
    <poly id="1090494034" type="building" color="255,230,230" fill="1" layer="-1.00" shape="3263.217345,1608.830303 3266.205952,1611.995706 3272.628687,1606.013759 3269.670687,1602.881218 3263.217345,1608.830303"/>
    <poly id="1090494035" type="building" color="255,230,230" fill="1" layer="-1.00" shape="3269.670687,1602.881218 3260.214903,1592.837032 3253.792166,1598.818985 3263.217345,1608.830303 3269.670687,1602.881218"/>
    <poly id="1090494036" type="building" color="255,230,230" fill="1" layer="-1.00" shape="3157.306150,1678.990345 3160.268443,1682.477299 3163.348599,1679.881141 3160.376372,1676.405385 3157.306150,1678.990345"/>
    <poly id="1090494037" type="building" color="255,230,230" fill="1" layer="-1.00" shape="3180.030254,1707.097154 3183.884352,1703.550047 3176.171614,1695.257314 3172.317514,1698.804423 3180.030254,1707.097154"/>
    <poly id="1090494038" type="building" color="255,230,230" fill="1" layer="-1.00" shape="3160.665856,1708.715706 3151.058415,1716.131972 3158.994992,1726.283052 3168.602430,1718.866791 3160.665856,1708.715706"/>
    <poly id="1090494039" type="building" color="255,230,230" fill="1" layer="-1.00" shape="3151.058415,1716.131972 3143.795584,1721.747488 3151.722097,1731.898685 3158.994992,1726.283052 3151.058415,1716.131972"/>
    <poly id="1090494040" type="building" color="255,230,230" fill="1" layer="-1.00" shape="3168.602430,1718.866791 3178.050126,1711.563244 3173.417049,1705.637200 3171.481624,1707.133912 3168.178129,1702.908867 3160.665856,1708.715706 3168.602430,1718.866791"/>
    <poly id="1090494041" type="building" color="255,230,230" fill="1" layer="-1.00" shape="3136.744253,1709.857594 3142.785035,1718.115110 3170.286333,1698.208596 3164.245560,1689.951069 3136.744253,1709.857594"/>
    <poly id="1090494042" type="building" color="255,230,230" fill="1" layer="-1.00" shape="3176.010451,1628.537937 3187.175974,1641.740740 3192.389737,1637.379622 3181.224216,1624.176815 3176.010451,1628.537937"/>
    <poly id="1090494043" type="building" color="255,230,230" fill="1" layer="-1.00" shape="3202.495886,1606.206667 3184.441829,1622.121814 3201.159809,1642.336274 3219.723722,1626.115894 3202.495886,1606.206667"/>
    <poly id="1090494044" type="building" color="255,230,230" fill="1" layer="-1.00" shape="3229.827764,1617.286815 3248.361942,1601.100072 3230.429080,1581.177164 3212.715537,1596.944148 3229.827764,1617.286815"/>
    <poly id="1090494045" type="building" color="255,230,230" fill="1" layer="-1.00" shape="3213.520184,1661.096781 3220.661841,1669.629062 3225.252912,1669.573641 3270.296641,1631.387793 3261.114765,1620.675636 3213.520184,1661.096781"/>
    <poly id="1090494046" type="building" color="255,230,230" fill="1" layer="-1.00" shape="3278.738712,1690.108773 3259.236215,1666.936840 3221.262783,1698.556900 3241.940117,1723.121475 3278.738712,1690.108773"/>
    <poly id="1090494047" type="building" color="255,230,230" fill="1" layer="-1.00" shape="3157.955644,1553.493681 3220.830560,1500.082027 3194.602854,1469.547097 3131.438711,1523.194994 3144.773774,1538.432029 3157.955644,1553.493681"/>
    <poly id="1090494048" type="building" color="255,230,230" fill="1" layer="-1.00" shape="3219.723722,1626.115894 3229.827764,1617.286815 3212.715537,1596.944148 3202.495886,1606.206667 3219.723722,1626.115894"/>
    <poly id="1090494049" type="building" color="255,230,230" fill="1" layer="-1.00" shape="3261.114765,1620.675636 3252.760027,1610.917267 3205.114424,1651.283668 3213.520184,1661.096781 3261.114765,1620.675636"/>
    <poly id="1090494050" type="building" color="255,230,230" fill="1" layer="-1.00" shape="3241.940117,1723.121475 3260.053128,1744.637410 3298.026505,1713.017456 3278.738712,1690.108773 3241.940117,1723.121475"/>
    <poly id="1090494051" type="building" color="255,230,230" fill="1" layer="-1.00" shape="3219.417255,1779.236309 3178.925747,1733.209685 3149.077663,1760.566627 3148.661977,1768.669489 3180.571528,1805.294933 3189.083034,1805.524491 3219.417255,1779.236309"/>
    <poly id="1090907628" type="building" color="255,230,230" fill="1" layer="-1.00" shape="3166.385431,1655.351550 3172.647084,1662.720192 3178.957230,1657.426376 3183.742198,1653.413842 3177.470346,1646.034241 3166.385431,1655.351550"/>
    <poly id="1090907629" type="building" color="255,230,230" fill="1" layer="-1.00" shape="3162.814552,1671.512806 3167.753780,1666.933438 3154.767561,1653.054739 3149.828332,1657.634113 3162.814552,1671.512806"/>
    <poly id="1090907630" type="building" color="255,230,230" fill="1" layer="-1.00" shape="3177.470346,1646.034241 3167.500446,1634.279272 3156.405459,1643.596711 3166.385431,1655.351550 3177.470346,1646.034241"/>
    <poly id="1090907631" type="building" color="255,230,230" fill="1" layer="-1.00" shape="3334.876988,1750.237214 3363.828152,1782.899682 3373.234338,1774.655168 3344.283182,1741.992680 3334.876988,1750.237214"/>
    <poly id="1090907632" type="building" color="255,230,230" fill="1" layer="-1.00" shape="3305.989851,1757.110517 3315.339624,1749.198974 3306.075710,1738.354850 3296.725800,1746.255323 3305.989851,1757.110517"/>
    <poly id="1090907633" type="building" color="255,230,230" fill="1" layer="-1.00" shape="3295.689904,1765.554186 3304.504588,1757.527236 3293.627951,1745.716659 3284.813265,1753.743616 3295.689904,1765.554186"/>
    <poly id="1090938697" type="building" color="255,230,230" fill="1" layer="-1.00" shape="3444.606377,1684.386106 3447.620133,1687.972197 3450.720875,1685.409094 3447.706986,1681.811926 3444.606377,1684.386106"/>
    <poly id="1090938698" type="building" color="255,230,230" fill="1" layer="-1.00" shape="3392.035101,1627.770171 3395.140164,1631.410539 3423.600464,1607.482873 3420.505472,1603.842377 3392.035101,1627.770171"/>
    <poly id="1090938699" type="building" color="255,230,230" fill="1" layer="-1.00" shape="3419.561588,1623.273038 3423.053107,1627.230008 3437.611677,1614.525569 3434.120159,1610.568596 3419.561588,1623.273038"/>
    <poly id="1090938700" type="building" color="255,230,230" fill="1" layer="-1.00" shape="3172.054467,1670.348844 3174.729992,1668.433319 3171.299253,1663.678076 3168.613525,1665.582648 3172.054467,1670.348844"/>
    <poly id="1090938701" type="building" color="255,230,230" fill="1" layer="-1.00" shape="3175.932054,1667.078395 3182.828157,1661.943672 3178.957230,1657.426376 3172.647084,1662.720192 3175.932054,1667.078395"/>
    <poly id="1090945569" type="building" color="255,230,230" fill="1" layer="-1.00" shape="3491.394242,1330.464525 3499.958443,1324.179956 3494.389954,1316.669883 3485.815681,1322.954576 3491.394242,1330.464525"/>
    <poly id="1091144344" type="building" color="255,230,230" fill="1" layer="-1.00" shape="3322.134644,1467.742219 3329.620646,1476.436570 3332.252084,1474.200357 3324.766083,1465.506005 3322.134644,1467.742219"/>
    <poly id="1092592291" type="building" color="255,230,230" fill="1" layer="-1.00" shape="3366.124287,1706.114282 3342.666103,1678.891182 3371.602451,1653.539698 3395.199882,1679.786326 3366.124287,1706.114282"/>
    <poly id="1092592292" type="building" color="255,230,230" fill="1" layer="-1.00" shape="3418.289410,1705.673548 3438.714760,1728.579777 3439.110433,1733.836935 3411.391772,1758.287377 3388.546534,1731.776870 3418.289410,1705.673548"/>
    <poly id="1092606316" type="building" color="255,230,230" fill="1" layer="-1.00" shape="3312.777470,1754.669061 3316.485235,1756.518622 3318.530887,1752.472719 3314.823121,1750.623157 3312.777470,1754.669061"/>
    <poly id="1095138462" type="building" color="255,230,230" fill="1" layer="-1.00" shape="3538.898512,1113.510899 3525.477792,1153.851484 3550.789632,1169.398822 3574.364036,1136.003574 3538.898512,1113.510899"/>
    <poly id="1095789786" type="building" color="255,230,230" fill="1" layer="-1.00" shape="3513.301769,1321.737176 3521.651000,1331.041581 3525.307532,1327.796065 3516.958302,1318.491657 3513.301769,1321.737176"/>
    <poly id="1095789793" type="building" color="255,230,230" fill="1" layer="-1.00" shape="3513.072077,1306.851470 3515.523054,1309.691074 3523.227997,1303.128853 3520.777020,1300.289248 3513.072077,1306.851470"/>
    <poly id="1095789794" type="building" color="255,230,230" fill="1" layer="-1.00" shape="3520.777020,1300.289248 3531.980623,1290.749284 3528.109856,1286.242967 3506.739233,1304.435280 3510.610004,1308.941592 3513.072077,1306.851470 3520.777020,1300.289248"/>
    <poly id="1095789795" type="building" color="255,230,230" fill="1" layer="-1.00" shape="3536.085973,1318.072904 3526.297958,1326.421572 3536.704810,1338.514941 3546.503024,1330.177235 3536.085973,1318.072904"/>
    <poly id="1095789796" type="building" color="255,230,230" fill="1" layer="-1.00" shape="3520.777020,1300.289248 3523.227997,1303.128853 3536.085973,1318.072904 3546.503024,1330.177235 3557.706617,1320.637292 3531.980623,1290.749284 3520.777020,1300.289248"/>
    <poly id="1095789797" type="building" color="255,230,230" fill="1" layer="-1.00" shape="3547.776241,1268.680494 3576.382541,1301.103876 3595.116935,1284.749094 3566.510651,1252.325674 3547.776241,1268.680494"/>
    <poly id="1107639661" type="building" color="255,230,230" fill="1" layer="-1.00" shape="2461.573248,1685.427176 2438.604738,1704.549084 2457.536664,1727.051098 2480.515226,1707.929098 2461.573248,1685.427176"/>
    <poly id="1107639662" type="building" color="255,230,230" fill="1" layer="-1.00" shape="2414.306619,1722.800943 2392.332709,1742.553386 2409.254088,1761.180344 2431.238190,1741.438882 2414.306619,1722.800943"/>
    <poly id="1107644264" type="building" color="255,230,230" fill="1" layer="-1.00" shape="2831.775495,1530.838691 2812.081903,1549.377472 2826.218226,1564.227875 2845.911679,1545.678038 2831.775495,1530.838691"/>
    <poly id="1107644264#1" type="tourism" color="207,245,201" fill="1" layer="-2.00" shape="2831.775495,1530.838691 2812.081903,1549.377472 2826.218226,1564.227875 2845.911679,1545.678038 2831.775495,1530.838691"/>
    <poly id="1107644265" type="building" color="255,230,230" fill="1" layer="-1.00" shape="2853.270649,1562.992186 2833.121614,1580.506215 2850.652504,1600.444576 2870.791460,1582.930693 2853.270649,1562.992186"/>
    <poly id="1107644266" type="building" color="255,230,230" fill="1" layer="-1.00" shape="2702.341527,1611.700161 2718.643989,1597.533675 2701.449567,1577.956965 2685.147096,1592.123472 2702.341527,1611.700161"/>
    <poly id="1107644267" type="building" color="255,230,230" fill="1" layer="-1.00" shape="2709.236123,1560.714273 2744.307528,1602.185802 2766.478135,1583.650159 2731.406625,1542.167498 2709.236123,1560.714273"/>
    <poly id="1107644268" type="building" color="255,230,230" fill="1" layer="-1.00" shape="2960.696638,1658.135995 3008.631728,1713.421683 3026.949778,1697.713563 2979.014717,1642.427812 2960.696638,1658.135995"/>
    <poly id="1107644269" type="building" color="255,230,230" fill="1" layer="-1.00" shape="2571.832220,1341.964070 2588.109691,1358.959551 2606.069643,1341.948028 2589.792176,1324.952526 2571.832220,1341.964070"/>
    <poly id="1107647928" type="building" color="255,230,230" fill="1" layer="-1.00" shape="3127.150031,1664.178021 3120.133765,1670.200446 3123.830341,1674.453967 3130.846606,1668.431543 3127.150031,1664.178021"/>
    <poly id="1107647929" type="building" color="255,230,230" fill="1" layer="-1.00" shape="3129.033752,1682.577581 3140.453429,1695.145844 3145.972044,1690.182825 3134.552369,1677.614557 3129.033752,1682.577581"/>
    <poly id="1107647930" type="building" color="255,230,230" fill="1" layer="-1.00" shape="3080.554933,1674.766267 3117.691669,1715.615524 3140.453429,1695.145844 3129.033752,1682.577581 3116.195717,1668.464495 3124.264490,1661.210801 3111.385356,1647.031748 3080.554933,1674.766267"/>
    <poly id="1107647931" type="building" color="255,230,230" fill="1" layer="-1.00" shape="3149.986557,1643.220040 3153.189581,1639.957732 3146.974163,1633.917870 3143.771139,1637.180180 3149.986557,1643.220040"/>
    <poly id="1107647932" type="building" color="255,230,230" fill="1" layer="-1.00" shape="3131.532198,1635.987587 3141.215455,1627.340764 3138.918948,1624.787382 3129.225621,1633.434328 3131.532198,1635.987587"/>
    <poly id="1107647933" type="building" color="255,230,230" fill="1" layer="-1.00" shape="3202.478217,1678.976646 3204.624279,1677.410930 3201.113275,1672.678805 3198.967213,1674.244522 3202.478217,1678.976646"/>
    <poly id="1107647934" type="building" color="255,230,230" fill="1" layer="-1.00" shape="3198.593035,1692.460869 3202.727446,1688.777450 3200.808562,1686.640455 3196.663950,1690.312919 3198.593035,1692.460869"/>
    <poly id="1107647935" type="building" color="255,230,230" fill="1" layer="-1.00" shape="3115.072388,1734.689833 3121.294200,1741.261334 3128.751851,1734.269809 3122.530174,1727.709382 3115.072388,1734.689833"/>
    <poly id="1107647936" type="building" color="255,230,230" fill="1" layer="-1.00" shape="3114.026042,1733.096197 3121.097461,1726.641067 3114.210378,1719.180304 3107.138824,1725.624362 3114.026042,1733.096197"/>
    <poly id="1107647937" type="building" color="255,230,230" fill="1" layer="-1.00" shape="3105.927340,1724.531221 3113.412221,1718.126481 3107.938379,1711.789658 3100.453497,1718.194402 3105.927340,1724.531221"/>
    <poly id="1107647938" type="building" color="255,230,230" fill="1" layer="-1.00" shape="3099.434777,1717.220788 3107.445242,1710.145029 3100.759105,1702.648612 3092.738704,1709.735572 3099.434777,1717.220788"/>
    <poly id="1107647939" type="building" color="255,230,230" fill="1" layer="-1.00" shape="3090.567968,1707.590555 3098.583686,1700.115929 3091.616969,1692.733683 3083.601384,1700.219389 3090.567968,1707.590555"/>
    <poly id="1107647940" type="building" color="255,230,230" fill="1" layer="-1.00" shape="3081.514804,1698.372457 3089.394386,1691.298270 3083.046634,1684.307349 3075.167184,1691.392616 3081.514804,1698.372457"/>
    <poly id="1107647941" type="building" color="255,230,230" fill="1" layer="-1.00" shape="3049.791204,1710.509283 3053.798032,1707.104301 3050.519454,1703.277781 3046.512759,1706.693839 3049.791204,1710.509283"/>
    <poly id="1107649844" type="building" color="255,230,230" fill="1" layer="-1.00" shape="2246.284720,1695.417687 2248.321621,1697.309412 2251.393273,1694.026314 2249.356372,1692.134589 2246.284720,1695.417687"/>
    <poly id="1107649845" type="building" color="255,230,230" fill="1" layer="-1.00" shape="2249.356372,1692.134589 2245.679934,1688.734036 2242.608282,1692.017136 2246.284720,1695.417687 2249.356372,1692.134589"/>
    <poly id="1107649846" type="building" color="255,230,230" fill="1" layer="-1.00" shape="2172.686844,1654.071953 2189.902279,1669.515758 2208.274969,1649.252827 2191.069601,1633.808876 2172.686844,1654.071953"/>
    <poly id="1107649847" type="building" color="255,230,230" fill="1" layer="-1.00" shape="2154.284390,1717.461221 2170.900395,1733.300006 2189.635306,1713.852397 2173.019303,1698.013589 2154.284390,1717.461221"/>
    <poly id="1107649848" type="building" color="255,230,230" fill="1" layer="-1.00" shape="2178.871700,1738.786377 2193.961847,1754.189534 2229.123690,1720.096976 2214.023482,1704.693902 2178.871700,1738.786377"/>
    <poly id="1107649849" type="building" color="255,230,230" fill="1" layer="-1.00" shape="2200.719910,1756.788269 2217.369402,1773.734480 2253.475880,1738.655663 2236.826397,1721.709410 2200.719910,1756.788269"/>
    <poly id="1108445849" type="building" color="255,230,230" fill="1" layer="-1.00" shape="2959.073565,1462.256403 2978.211342,1446.859586 2969.666089,1436.361466 2960.292970,1424.854206 2941.165381,1440.262001 2959.073565,1462.256403"/>
    <poly id="1108445850" type="building" color="255,230,230" fill="1" layer="-1.00" shape="2936.923954,1481.733052 2956.000356,1465.428565 2937.576653,1444.105067 2918.500239,1460.409579 2936.923954,1481.733052"/>
    <poly id="1108445851" type="building" color="255,230,230" fill="1" layer="-1.00" shape="2754.180021,1491.066959 2768.291747,1507.202627 2789.010021,1489.293893 2774.898171,1473.147127 2754.180021,1491.066959"/>
    <poly id="1108924069" type="building" color="255,230,230" fill="1" layer="-1.00" shape="1663.162065,1770.717873 1663.196139,1774.339912 1669.471955,1774.540373 1673.088873,1777.177132 1677.079683,1778.269515 1682.745606,1778.001068 1687.107502,1775.665880 1690.174283,1771.994979 1695.910685,1771.725679 1706.176696,1761.397903 1704.836271,1742.293888 1706.135061,1742.278064 1703.297440,1700.294402 1656.255062,1705.509266 1663.162065,1770.717873"/>
    <poly id="1108924070" type="building" color="255,230,230" fill="1" layer="-1.00" shape="1722.962094,1798.536786 1743.367052,1776.542414 1721.727245,1756.688685 1701.322421,1778.694165 1722.962094,1798.536786"/>