<?xml version='1.0' encoding='UTF-8'?>
<net xmlns:xsi="http://www.w3.org/2001/XMLSchema-instance" version="1.20" junctionCornerDetail="5" limitTurnSpeed="2.48" avoidOverlap="0" xsi:noNamespaceSchemaLocation="http://sumo.dlr.de/xsd/net_file.xsd">
    <location netOffset="-333961.29,-2798491.70" convBoundary="1348.59,481.02,3456.59,2143.39" origBoundary="55.350521,25.294015,55.397906,25.326708" projParameter="+proj=utm +zone=40 +ellps=WGS84 +datum=WGS84 +units=m +no_defs" />
    <type id="highway.motorway" priority="14" numLanes="2" speed="17.75" allow="private emergency authority army vip passenger hov taxi bus coach delivery truck trailer motorcycle evehicle custom1 custom2" oneway="1" />
    <type id="highway.motorway_link" priority="9" numLanes="1" speed="10.00" allow="private emergency authority army vip passenger hov taxi bus coach delivery truck trailer motorcycle evehicle custom1 custom2" oneway="1" />
    <type id="highway.primary" priority="12" numLanes="2" speed="12.50" disallow="tram rail_urban rail rail_electric rail_fast ship" oneway="0" />
    <type id="highway.primary_link" priority="7" numLanes="1" speed="10.00" disallow="tram rail_urban rail rail_electric rail_fast ship" oneway="0" />
    <type id="highway.residential" priority="3" numLanes="1" speed="6.25" disallow="tram rail_urban rail rail_electric rail_fast ship" oneway="0" />
    <type id="highway.secondary" priority="11" numLanes="1" speed="12.50" disallow="tram rail_urban rail rail_electric rail_fast ship" oneway="0" />
    <type id="highway.tertiary" priority="10" numLanes="1" speed="10.00" disallow="tram rail_urban rail rail_electric rail_fast ship" oneway="0" />
    <type id="highway.tertiary_link" priority="5" numLanes="1" speed="10.00" disallow="tram rail_urban rail rail_electric rail_fast ship" oneway="0" />
    <edge id=":10068844637_0" function="internal">
        <lane id=":10068844637_0_0" index="0" allow="private emergency authority army vip passenger hov taxi bus coach delivery truck trailer motorcycle evehicle custom1 custom2" speed="5.00" length="0.10" shape="1534.75,611.50 1534.79,611.42" />
        <lane id=":10068844637_0_1" index="1" allow="private emergency authority army vip passenger hov taxi bus coach delivery truck trailer motorcycle evehicle custom1 custom2" speed="5.00" length="0.10" shape="1531.87,610.12 1531.83,610.20" />
    </edge>
    <edge id=":10114237154_0" function="internal">
        <lane id=":10114237154_0_0" index="0" disallow="pedestrian tram rail_urban rail rail_electric rail_fast ship cable_car subway" speed="10.00" length="8.14" shape="2548.57,565.98 2546.31,564.94 2545.07,563.54 2543.83,562.14 2541.56,561.15" />
        <lane id=":10114237154_0_1" index="1" disallow="pedestrian tram rail_urban rail rail_electric rail_fast ship cable_car subway" speed="10.00" length="8.14" shape="2549.28,562.86 2541.56,561.15" />
        <lane id=":10114237154_0_2" index="2" disallow="pedestrian tram rail_urban rail rail_electric rail_fast ship cable_car subway" speed="10.00" length="8.14" shape="2550.00,559.74 2542.22,558.02" />
        <lane id=":10114237154_0_3" index="3" disallow="pedestrian tram rail_urban rail rail_electric rail_fast ship cable_car subway" speed="10.00" length="8.14" shape="2550.72,556.62 2542.89,554.89" />
        <lane id=":10114237154_0_4" index="4" disallow="pedestrian tram rail_urban rail rail_electric rail_fast ship cable_car subway" speed="10.00" length="8.14" shape="2551.44,553.51 2543.55,551.76" />
    </edge>
    <edge id=":10114281310_0" function="internal">
        <lane id=":10114281310_0_0" index="0" disallow="tram rail_urban rail rail_electric rail_fast ship cable_car subway" speed="7.50" length="4.74" shape="1911.26,663.42 1915.53,665.69" />
        <lane id=":10114281310_0_1" index="1" disallow="tram rail_urban rail rail_electric rail_fast ship cable_car subway" speed="7.50" length="4.74" shape="1909.92,666.33 1914.03,668.51" />
    </edge>
    <edge id=":10114281310_2" function="internal">
        <lane id=":10114281310_2_0" index="0" disallow="tram rail_urban rail rail_electric rail_fast ship cable_car subway" speed="4.58" length="4.35" shape="1908.58,669.24 1909.75,669.79 1910.51,670.25 1911.14,670.87 1911.93,671.88" />
    </edge>
    <edge id=":10114281313_0" function="internal">
        <lane id=":10114281313_0_0" index="0" disallow="tram rail_urban rail rail_electric rail_fast ship cable_car subway" speed="7.50" length="7.38" shape="1956.74,706.03 1950.18,702.80" />
        <lane id=":10114281313_0_1" index="1" disallow="tram rail_urban rail rail_electric rail_fast ship cable_car subway" speed="7.50" length="7.38" shape="1958.19,703.18 1951.51,699.89" />
    </edge>
    <edge id=":10114281313_2" function="internal">
        <lane id=":10114281313_2_0" index="0" disallow="tram rail_urban rail rail_electric rail_fast ship cable_car subway" speed="2.43" length="6.43" shape="1956.58,697.84 1955.82,699.40 1954.72,700.26 1953.28,700.42 1951.51,699.89" />
    </edge>
    <edge id=":10114281331_0" function="internal">
        <lane id=":10114281331_0_0" index="0" disallow="tram rail_urban rail rail_electric rail_fast ship cable_car subway" speed="10.00" length="0.29" shape="1848.58,566.57 1848.61,566.85" />
    </edge>
    <edge id=":10114281332_0" function="internal">
        <lane id=":10114281332_0_0" index="0" disallow="tram rail_urban rail rail_electric rail_fast ship cable_car subway" speed="6.01" length="8.37" shape="1850.84,551.17 1849.60,553.34 1848.48,554.79 1847.76,556.31 1847.69,558.66" />
    </edge>
    <edge id=":10114281332_1" function="internal">
        <lane id=":10114281332_1_0" index="0" disallow="tram rail_urban rail rail_electric rail_fast ship cable_car subway" speed="10.00" length="8.50" shape="1847.25,550.17 1847.69,558.66" />
    </edge>
    <edge id=":10114281337_0" function="internal">
        <lane id=":10114281337_0_0" index="0" disallow="pedestrian tram rail_urban rail rail_electric rail_fast ship cable_car subway" speed="10.00" length="2.93" shape="1915.30,518.59 1912.41,519.05" />
    </edge>
    <edge id=":10114281337_1" function="internal">
        <lane id=":10114281337_1_0" index="0" disallow="pedestrian tram rail_urban rail rail_electric rail_fast ship cable_car subway" speed="10.00" length="3.02" shape="1914.82,515.43 1911.88,515.86" />
        <lane id=":10114281337_1_1" index="1" disallow="pedestrian tram rail_urban rail rail_electric rail_fast ship cable_car subway" speed="10.00" length="3.02" shape="1914.35,512.26 1911.36,512.70" />
        <lane id=":10114281337_1_2" index="2" disallow="pedestrian tram rail_urban rail rail_electric rail_fast ship cable_car subway" speed="10.00" length="3.02" shape="1913.87,509.10 1910.84,509.54" />
    </edge>
    <edge id=":10114281342_0" function="internal">
        <lane id=":10114281342_0_0" index="0" disallow="tram rail_urban rail rail_electric rail_fast ship cable_car subway" speed="10.00" length="7.50" shape="1831.59,556.45 1830.90,554.37 1830.82,552.80 1830.70,551.25 1829.87,549.24" />
    </edge>
    <edge id=":10114281342_1" function="internal">
        <lane id=":10114281342_1_0" index="0" disallow="tram rail_urban rail rail_electric rail_fast ship cable_car subway" speed="7.01" length="6.34" shape="1834.46,555.05 1833.75,553.34 1833.50,552.08 1833.48,550.77 1833.45,548.88" />
    </edge>
    <edge id=":10114281348_0" function="internal">
        <lane id=":10114281348_0_0" index="0" disallow="tram rail_urban rail rail_electric rail_fast ship cable_car subway" speed="10.00" length="0.10" shape="1850.62,587.28 1850.62,587.28" />
    </edge>
    <edge id=":10114281349_0" function="internal">
        <lane id=":10114281349_0_0" index="0" disallow="tram rail_urban rail rail_electric rail_fast ship cable_car subway" speed="8.12" length="8.30" shape="1841.85,591.93 1840.86,589.62 1839.46,588.33 1838.11,587.03 1837.24,584.71" />
        <lane id=":10114281349_0_1" index="1" disallow="tram rail_urban rail rail_electric rail_fast ship cable_car subway" speed="8.12" length="8.30" shape="1841.85,591.93 1840.40,584.23" />
    </edge>
    <edge id=":10114281359_0" function="internal">
        <lane id=":10114281359_0_0" index="0" disallow="tram rail_urban rail rail_electric rail_fast ship cable_car subway" speed="3.44" length="7.03" shape="1854.02,599.43 1854.94,601.36 1856.01,602.84 1857.23,603.85 1858.60,604.41" />
    </edge>
    <edge id=":10114281359_1" function="internal">
        <lane id=":10114281359_1_0" index="0" disallow="tram rail_urban rail rail_electric rail_fast ship cable_car subway" speed="10.00" length="7.61" shape="1851.08,603.73 1853.32,603.58 1854.87,603.64 1856.40,603.91 1858.60,604.41" />
    </edge>
    <edge id=":10116273388_0" function="internal">
        <lane id=":10116273388_0_0" index="0" allow="private emergency authority army vip passenger hov taxi bus coach delivery truck trailer motorcycle evehicle custom1 custom2" speed="10.00" length="0.30" shape="1695.54,961.06 1695.84,961.20" />
        <lane id=":10116273388_0_1" index="1" allow="private emergency authority army vip passenger hov taxi bus coach delivery truck trailer motorcycle evehicle custom1 custom2" speed="10.00" length="0.30" shape="1694.21,963.97 1694.49,964.10" />
        <lane id=":10116273388_0_2" index="2" allow="private emergency authority army vip passenger hov taxi bus coach delivery truck trailer motorcycle evehicle custom1 custom2" speed="10.00" length="0.30" shape="1692.88,966.88 1693.14,967.00" />
        <lane id=":10116273388_0_3" index="3" allow="private emergency authority army vip passenger hov taxi bus coach delivery truck trailer motorcycle evehicle custom1 custom2" speed="10.00" length="0.30" shape="1691.54,969.79 1691.79,969.90" />
    </edge>
    <edge id=":10116273393_0" function="internal">
        <lane id=":10116273393_0_0" index="0" allow="private emergency authority army vip passenger hov taxi bus coach delivery truck trailer motorcycle evehicle custom1 custom2" speed="10.00" length="0.37" shape="1604.22,919.20 1604.30,919.24" />
        <lane id=":10116273393_0_1" index="1" allow="private emergency authority army vip passenger hov taxi bus coach delivery truck trailer motorcycle evehicle custom1 custom2" speed="10.00" length="0.37" shape="1602.72,922.03 1602.97,922.15" />
        <lane id=":10116273393_0_2" index="2" allow="private emergency authority army vip passenger hov taxi bus coach delivery truck trailer motorcycle evehicle custom1 custom2" speed="10.00" length="0.37" shape="1601.21,924.86 1601.63,925.06" />
        <lane id=":10116273393_0_3" index="3" allow="private emergency authority army vip passenger hov taxi bus coach delivery truck trailer motorcycle evehicle custom1 custom2" speed="10.00" length="0.37" shape="1599.71,927.68 1600.30,927.97" />
    </edge>
    <edge id=":10116757575_0" function="internal">
        <lane id=":10116757575_0_0" index="0" disallow="tram rail_urban rail rail_electric rail_fast ship cable_car subway" speed="7.50" length="0.52" shape="2430.87,1079.41 2430.81,1079.46 2430.77,1079.49 2430.73,1079.53 2430.68,1079.58" />
        <lane id=":10116757575_0_1" index="1" disallow="tram rail_urban rail rail_electric rail_fast ship cable_car subway" speed="7.50" length="0.52" shape="2428.94,1076.86 2428.76,1077.00 2428.64,1077.10 2428.52,1077.21 2428.36,1077.37" />
    </edge>
    <edge id=":10116757608_0" function="internal">
        <lane id=":10116757608_0_0" index="0" disallow="tram rail_urban rail rail_electric rail_fast ship cable_car subway" speed="7.50" length="0.25" shape="1912.23,685.52 1911.94,685.38" />
        <lane id=":10116757608_0_1" index="1" disallow="tram rail_urban rail rail_electric rail_fast ship cable_car subway" speed="7.50" length="0.25" shape="1913.56,682.61 1913.39,682.53" />
    </edge>
    <edge id=":10116779303_0" function="internal">
        <lane id=":10116779303_0_0" index="0" disallow="tram rail_urban rail rail_electric rail_fast ship cable_car subway" speed="7.50" length="0.29" shape="2199.22,823.66 2198.94,823.53" />
        <lane id=":10116779303_0_1" index="1" disallow="tram rail_urban rail rail_electric rail_fast ship cable_car subway" speed="7.50" length="0.29" shape="2200.58,820.76 2200.34,820.65" />
    </edge>
    <edge id=":10116779304_0" function="internal">
        <lane id=":10116779304_0_0" index="0" disallow="tram rail_urban rail rail_electric rail_fast ship cable_car subway" speed="7.50" length="0.24" shape="2207.38,827.48 2207.21,827.40" />
        <lane id=":10116779304_0_1" index="1" disallow="tram rail_urban rail rail_electric rail_fast ship cable_car subway" speed="7.50" length="0.24" shape="2208.83,824.63 2208.57,824.50" />
    </edge>
    <edge id=":10116779313_0" function="internal">
        <lane id=":10116779313_0_0" index="0" disallow="tram rail_urban rail rail_electric rail_fast ship cable_car subway" speed="7.50" length="0.27" shape="2229.47,838.78 2229.19,838.64" />
        <lane id=":10116779313_0_1" index="1" disallow="tram rail_urban rail rail_electric rail_fast ship cable_car subway" speed="7.50" length="0.27" shape="2230.86,835.90 2230.65,835.79" />
    </edge>
    <edge id=":10116779325_0" function="internal">
        <lane id=":10116779325_0_0" index="0" disallow="tram rail_urban rail rail_electric rail_fast ship cable_car subway" speed="7.50" length="0.29" shape="2351.00,897.47 2350.75,897.35" />
        <lane id=":10116779325_0_1" index="1" disallow="tram rail_urban rail rail_electric rail_fast ship cable_car subway" speed="7.50" length="0.29" shape="2352.42,894.60 2352.14,894.47" />
    </edge>
    <edge id=":10116779353_0" function="internal">
        <lane id=":10116779353_0_0" index="0" disallow="tram rail_urban rail rail_electric rail_fast ship cable_car subway" speed="7.50" length="0.25" shape="2384.61,1120.45 2384.80,1120.19" />
        <lane id=":10116779353_0_1" index="1" disallow="tram rail_urban rail rail_electric rail_fast ship cable_car subway" speed="7.50" length="0.25" shape="2387.27,1122.24 2387.37,1122.09" />
    </edge>
    <edge id=":10116779373_0" function="internal">
        <lane id=":10116779373_0_0" index="0" allow="private emergency authority army vip passenger hov taxi bus coach delivery truck trailer motorcycle evehicle custom1 custom2" speed="10.00" length="8.58" shape="2142.34,1179.40 2145.24,1179.72 2147.45,1178.36 2149.64,1177.02 2152.50,1177.41" />
        <lane id=":10116779373_0_1" index="1" allow="private emergency authority army vip passenger hov taxi bus coach delivery truck trailer motorcycle evehicle custom1 custom2" speed="10.00" length="8.58" shape="2142.34,1179.40 2144.80,1180.06 2146.69,1179.78 2148.58,1179.52 2151.01,1180.24" />
        <lane id=":10116779373_0_2" index="2" allow="private emergency authority army vip passenger hov taxi bus coach delivery truck trailer motorcycle evehicle custom1 custom2" speed="10.00" length="8.58" shape="2142.34,1179.40 2149.51,1183.07" />
        <lane id=":10116779373_0_3" index="3" allow="private emergency authority army vip passenger hov taxi bus coach delivery truck trailer motorcycle evehicle custom1 custom2" speed="10.00" length="8.58" shape="2140.93,1182.27 2148.01,1185.90" />
        <lane id=":10116779373_0_4" index="4" allow="private emergency authority army vip passenger hov taxi bus coach delivery truck trailer motorcycle evehicle custom1 custom2" speed="10.00" length="8.58" shape="2139.51,1185.14 2146.52,1188.73" />
        <lane id=":10116779373_0_5" index="5" allow="private emergency authority army vip passenger hov taxi bus coach delivery truck trailer motorcycle evehicle custom1 custom2" speed="10.00" length="8.58" shape="2138.10,1188.01 2145.02,1191.55" />
    </edge>
    <edge id=":10116779380_0" function="internal">
        <lane id=":10116779380_0_0" index="0" allow="private emergency authority army vip passenger hov taxi bus coach delivery truck trailer motorcycle evehicle custom1 custom2" speed="10.00" length="0.30" shape="2057.73,1137.70 2058.03,1137.84" />
        <lane id=":10116779380_0_1" index="1" allow="private emergency authority army vip passenger hov taxi bus coach delivery truck trailer motorcycle evehicle custom1 custom2" speed="10.00" length="0.30" shape="2056.34,1140.58 2056.61,1140.71" />
        <lane id=":10116779380_0_2" index="2" allow="private emergency authority army vip passenger hov taxi bus coach delivery truck trailer motorcycle evehicle custom1 custom2" speed="10.00" length="0.30" shape="2054.94,1143.45 2055.20,1143.58" />
        <lane id=":10116779380_0_3" index="3" allow="private emergency authority army vip passenger hov taxi bus coach delivery truck trailer motorcycle evehicle custom1 custom2" speed="10.00" length="0.30" shape="2053.54,1146.33 2053.78,1146.45" />
    </edge>
    <edge id=":10116835378_0" function="internal">
        <lane id=":10116835378_0_0" index="0" disallow="pedestrian tram rail_urban rail rail_electric rail_fast ship cable_car subway" speed="4.25" length="7.20" shape="3357.30,984.02 3356.71,981.95 3356.26,980.46 3355.45,979.27 3353.79,978.08" />
    </edge>
    <edge id=":10116835378_1" function="internal">
        <lane id=":10116835378_1_0" index="0" allow="private emergency authority army vip passenger hov taxi bus coach delivery truck trailer motorcycle evehicle custom1 custom2" speed="6.87" length="7.33" shape="3360.42,981.35 3353.79,978.08" />
        <lane id=":10116835378_1_1" index="1" allow="private emergency authority army vip passenger hov taxi bus coach delivery truck trailer motorcycle evehicle custom1 custom2" speed="6.87" length="7.33" shape="3361.89,978.51 3355.37,975.29" />
    </edge>
    <edge id=":10123428090_0" function="internal">
        <lane id=":10123428090_0_0" index="0" disallow="tram rail_urban rail rail_electric rail_fast ship cable_car subway" speed="6.88" length="5.59" shape="3028.87,1427.82 3028.38,1426.24 3028.02,1425.14 3027.49,1424.14 3026.48,1422.84" />
    </edge>
    <edge id=":10123428090_1" function="internal">
        <lane id=":10123428090_1_0" index="0" disallow="tram rail_urban rail rail_electric rail_fast ship cable_car subway" speed="6.88" length="5.99" shape="3032.10,1425.79 3030.97,1424.45 3030.43,1423.35 3029.93,1422.21 3028.91,1420.76" />
    </edge>
    <edge id=":10123933435_0" function="internal">
        <lane id=":10123933435_0_0" index="0" disallow="tram rail_urban rail rail_electric rail_fast ship cable_car subway" speed="7.50" length="0.29" shape="2982.60,1347.72 2982.80,1347.95" />
        <lane id=":10123933435_0_1" index="1" disallow="tram rail_urban rail rail_electric rail_fast ship cable_car subway" speed="7.50" length="0.29" shape="2980.19,1349.83 2980.37,1350.03" />
    </edge>
    <edge id=":10123933437_0" function="internal">
        <lane id=":10123933437_0_0" index="0" disallow="tram rail_urban rail rail_electric rail_fast ship cable_car subway" speed="7.50" length="0.30" shape="2949.36,1309.95 2949.56,1310.18" />
        <lane id=":10123933437_0_1" index="1" disallow="tram rail_urban rail rail_electric rail_fast ship cable_car subway" speed="7.50" length="0.30" shape="2946.96,1312.06 2947.16,1312.29" />
    </edge>
    <edge id=":10125998688_0" function="internal">
        <lane id=":10125998688_0_0" index="0" disallow="tram rail_urban rail rail_electric rail_fast ship cable_car subway" speed="7.50" length="0.30" shape="2398.92,1125.78 2398.76,1126.03" />
        <lane id=":10125998688_0_1" index="1" disallow="tram rail_urban rail rail_electric rail_fast ship cable_car subway" speed="7.50" length="0.30" shape="2396.25,1124.03 2396.08,1124.28" />
    </edge>
    <edge id=":10126302722_0" function="internal">
        <lane id=":10126302722_0_0" index="0" allow="private emergency authority army vip passenger hov taxi bus coach delivery truck trailer motorcycle evehicle custom1 custom2" speed="8.12" length="0.32" shape="2433.83,1371.39 2434.24,1371.77" />
        <lane id=":10126302722_0_1" index="1" allow="private emergency authority army vip passenger hov taxi bus coach delivery truck trailer motorcycle evehicle custom1 custom2" speed="8.12" length="0.32" shape="2431.71,1373.79 2432.00,1374.06" />
        <lane id=":10126302722_0_2" index="2" allow="private emergency authority army vip passenger hov taxi bus coach delivery truck trailer motorcycle evehicle custom1 custom2" speed="8.12" length="0.32" shape="2429.59,1376.18 2429.77,1376.35" />
        <lane id=":10126302722_0_3" index="3" allow="private emergency authority army vip passenger hov taxi bus coach delivery truck trailer motorcycle evehicle custom1 custom2" speed="8.12" length="0.32" shape="2427.47,1378.58 2427.53,1378.63" />
    </edge>
    <edge id=":10128303616_0" function="internal">
        <lane id=":10128303616_0_0" index="0" disallow="pedestrian tram rail_urban rail rail_electric rail_fast ship cable_car subway" speed="8.12" length="0.33" shape="3197.27,1310.91 3197.31,1310.88 3197.33,1310.85 3197.35,1310.83 3197.39,1310.80" />
        <lane id=":10128303616_0_1" index="1" disallow="pedestrian tram rail_urban rail rail_electric rail_fast ship cable_car subway" speed="8.12" length="0.33" shape="3199.32,1313.36 3199.43,1313.27 3199.51,1313.20 3199.58,1313.13 3199.68,1313.03" />
    </edge>
    <edge id=":1037567995_0" function="internal">
        <lane id=":1037567995_0_0" index="0" disallow="tram rail_urban rail rail_electric rail_fast ship cable_car subway" speed="7.50" length="0.30" shape="2061.83,757.30 2061.55,757.17" />
        <lane id=":1037567995_0_1" index="1" disallow="tram rail_urban rail rail_electric rail_fast ship cable_car subway" speed="7.50" length="0.30" shape="2063.18,754.40 2062.93,754.28" />
    </edge>
    <edge id=":1037568003_0" function="internal">
        <lane id=":1037568003_0_0" index="0" disallow="tram rail_urban rail rail_electric rail_fast ship cable_car subway" speed="7.50" length="0.28" shape="1992.80,724.22 1992.52,724.09" />
        <lane id=":1037568003_0_1" index="1" disallow="tram rail_urban rail rail_electric rail_fast ship cable_car subway" speed="7.50" length="0.28" shape="1994.19,721.34 1993.96,721.23" />
    </edge>
    <edge id=":1037568008_0" function="internal">
        <lane id=":1037568008_0_0" index="0" disallow="tram rail_urban rail rail_electric rail_fast ship cable_car subway" speed="7.50" length="0.29" shape="2124.55,787.46 2124.27,787.32" />
        <lane id=":1037568008_0_1" index="1" disallow="tram rail_urban rail rail_electric rail_fast ship cable_car subway" speed="7.50" length="0.29" shape="2125.95,784.58 2125.71,784.47" />
    </edge>
    <edge id=":1037598924_0" function="internal">
        <lane id=":1037598924_0_0" index="0" disallow="tram rail_urban rail rail_electric rail_fast ship cable_car subway" speed="7.50" length="0.10" shape="2337.11,1192.03 2337.05,1192.10" />
        <lane id=":1037598924_0_1" index="1" disallow="tram rail_urban rail rail_electric rail_fast ship cable_car subway" speed="7.50" length="0.10" shape="2339.67,1193.93 2339.73,1193.86" />
    </edge>
    <edge id=":1037598925_0" function="internal">
        <lane id=":1037598925_0_0" index="0" disallow="tram rail_urban rail rail_electric rail_fast ship cable_car subway" speed="8.12" length="0.24" shape="3343.00,1113.56 3343.06,1113.40" />
        <lane id=":1037598925_0_1" index="1" disallow="tram rail_urban rail rail_electric rail_fast ship cable_car subway" speed="8.12" length="0.24" shape="3345.99,1114.70 3346.10,1114.41" />
    </edge>
    <edge id=":1037603706_0" function="internal">
        <lane id=":1037603706_0_0" index="0" disallow="tram rail_urban rail rail_electric rail_fast ship cable_car subway" speed="7.50" length="0.29" shape="2932.35,1311.42 2932.14,1311.18" />
        <lane id=":1037603706_0_1" index="1" disallow="tram rail_urban rail rail_electric rail_fast ship cable_car subway" speed="7.50" length="0.29" shape="2934.76,1309.32 2934.59,1309.12" />
    </edge>
    <edge id=":1037603708_0" function="internal">
        <lane id=":1037603708_0_0" index="0" disallow="tram rail_urban rail rail_electric rail_fast ship cable_car subway" speed="7.50" length="0.26" shape="2768.94,1125.63 2768.80,1125.48" />
        <lane id=":1037603708_0_1" index="1" disallow="tram rail_urban rail rail_electric rail_fast ship cable_car subway" speed="7.50" length="0.26" shape="2771.27,1123.44 2771.06,1123.22" />
    </edge>
    <edge id=":1037603710_0" function="internal">
        <lane id=":1037603710_0_0" index="0" disallow="tram rail_urban rail rail_electric rail_fast ship cable_car subway" speed="10.00" length="0.36" shape="2808.10,1648.06 2808.09,1647.73" />
        <lane id=":1037603710_0_1" index="1" disallow="tram rail_urban rail rail_electric rail_fast ship cable_car subway" speed="10.00" length="0.36" shape="2810.13,1650.53 2810.19,1650.14" />
    </edge>
    <edge id=":1037603711_0" function="internal">
        <lane id=":1037603711_0_0" index="0" disallow="tram rail_urban rail rail_electric rail_fast ship cable_car subway" speed="7.50" length="0.28" shape="2775.06,1109.82 2775.36,1110.11" />
        <lane id=":1037603711_0_1" index="1" disallow="tram rail_urban rail rail_electric rail_fast ship cable_car subway" speed="7.50" length="0.28" shape="2772.91,1112.19 2773.01,1112.29" />
    </edge>
    <edge id=":10941349266_0" function="internal">
        <lane id=":10941349266_0_0" index="0" disallow="tram rail_urban rail rail_electric rail_fast ship cable_car subway" speed="7.50" length="0.23" shape="1986.05,703.21 1986.21,703.29" />
        <lane id=":10941349266_0_1" index="1" disallow="tram rail_urban rail rail_electric rail_fast ship cable_car subway" speed="7.50" length="0.23" shape="1984.54,706.04 1984.81,706.17" />
    </edge>
    <edge id=":10941349267_0" function="internal">
        <lane id=":10941349267_0_0" index="0" disallow="tram rail_urban rail rail_electric rail_fast ship cable_car subway" speed="7.50" length="0.10" shape="1978.84,717.20 1978.84,717.20" />
        <lane id=":10941349267_0_1" index="1" disallow="tram rail_urban rail rail_electric rail_fast ship cable_car subway" speed="7.50" length="0.10" shape="1980.28,714.34 1980.28,714.34" />
    </edge>
    <edge id=":10941349274_0" function="internal">
        <lane id=":10941349274_0_0" index="0" disallow="tram rail_urban rail rail_electric rail_fast ship cable_car subway" speed="7.50" length="0.29" shape="2071.60,744.84 2071.85,744.96" />
        <lane id=":10941349274_0_1" index="1" disallow="tram rail_urban rail rail_electric rail_fast ship cable_car subway" speed="7.50" length="0.29" shape="2070.20,747.71 2070.48,747.85" />
    </edge>
    <edge id=":10941349285_0" function="internal">
        <lane id=":10941349285_0_0" index="0" disallow="tram rail_urban rail rail_electric rail_fast ship cable_car subway" speed="7.50" length="8.26" shape="1890.90,657.55 1893.33,658.14 1895.18,657.79 1897.04,657.44 1899.48,658.01" />
        <lane id=":10941349285_0_1" index="1" disallow="tram rail_urban rail rail_electric rail_fast ship cable_car subway" speed="7.50" length="8.26" shape="1890.90,657.55 1898.14,660.92" />
        <lane id=":10941349285_0_2" index="2" disallow="tram rail_urban rail rail_electric rail_fast ship cable_car subway" speed="7.50" length="8.26" shape="1889.54,660.45 1896.81,663.83" />
    </edge>
    <edge id=":12471863513_0" function="internal">
        <lane id=":12471863513_0_0" index="0" disallow="tram rail_urban rail rail_electric rail_fast ship cable_car subway" speed="7.50" length="0.30" shape="2991.26,1357.88 2991.45,1358.09" />
        <lane id=":12471863513_0_1" index="1" disallow="tram rail_urban rail rail_electric rail_fast ship cable_car subway" speed="7.50" length="0.30" shape="2988.83,1359.96 2989.03,1360.19" />
    </edge>
    <edge id=":12516933651_0" function="internal">
        <lane id=":12516933651_0_0" index="0" disallow="tram rail_urban rail rail_electric rail_fast ship cable_car subway" speed="7.50" length="0.27" shape="3015.96,1410.55 3015.75,1410.29" />
        <lane id=":12516933651_0_1" index="1" disallow="tram rail_urban rail rail_electric rail_fast ship cable_car subway" speed="7.50" length="0.27" shape="3018.39,1408.47 3018.27,1408.32" />
    </edge>
    <edge id=":12592753054_0" function="internal">
        <lane id=":12592753054_0_0" index="0" disallow="pedestrian tram rail_urban rail rail_electric rail_fast ship cable_car subway" speed="8.12" length="0.33" shape="2300.09,505.66 2299.98,505.64" />
        <lane id=":12592753054_0_1" index="1" disallow="pedestrian tram rail_urban rail rail_electric rail_fast ship cable_car subway" speed="8.12" length="0.33" shape="2300.88,502.56 2300.56,502.49" />
        <lane id=":12592753054_0_2" index="2" disallow="pedestrian tram rail_urban rail rail_electric rail_fast ship cable_car subway" speed="8.12" length="0.33" shape="2301.67,499.46 2301.14,499.34" />
    </edge>
    <edge id=":12592753055_0" function="internal">
        <lane id=":12592753055_0_0" index="0" disallow="pedestrian tram rail_urban rail rail_electric rail_fast ship cable_car subway" speed="8.12" length="0.47" shape="2352.92,519.12 2352.31,518.98" />
        <lane id=":12592753055_0_1" index="1" disallow="pedestrian tram rail_urban rail rail_electric rail_fast ship cable_car subway" speed="8.12" length="0.47" shape="2353.56,515.99 2353.10,515.88" />
        <lane id=":12592753055_0_2" index="2" disallow="pedestrian tram rail_urban rail rail_electric rail_fast ship cable_car subway" speed="8.12" length="0.47" shape="2354.20,512.85 2353.89,512.78" />
    </edge>
    <edge id=":13111877403_0" function="internal">
        <lane id=":13111877403_0_0" index="0" allow="private emergency authority army vip passenger hov taxi bus coach delivery truck trailer motorcycle evehicle custom1 custom2" speed="10.00" length="3.23" shape="2363.02,1313.79 2365.60,1315.75" />