<?xml version="1.0" encoding="UTF-8"?>
<routes xmlns:xsi="http://www.w3.org/2001/XMLSchema-instance" xsi:noNamespaceSchemaLocation="http://sumo.dlr.de/xsd/routes_file.xsd">
    
    <vType id="slow_car" maxSpeed="7.0"/>

    <flow id="f_0" type="slow_car" begin="0.00" end="3600.00" perHour="1800.00" line="random" from="E14" to="1280176745" via="502102942#0 502102942#0-AddedOffRampEdge 502102942#1 70633556#0 70633556#2 1280176753#0 1280176753#1 38968026#0 38968026#1 38968026#2 38968026#3 38968026#4 1280176740#0 1280176740#1 1280176740#2 1280176743#0 38991475#0 38991475#1 38991475#4 38991475#3 38991475#5 38991475#6 38991475#7 38991475#8 501781289#11 501781289#12 E6 501781289#14 1280176743#1 1280176743#2 1280176739#0 1280176739#1 1280176739#2 1280176739#3 1280176739#4 1280176739#5 1280176739#6"/>
</routes>
