<?xml version="1.0" encoding="UTF-8"?>

<!-- generated on 2026-03-24 11:37:58 by Eclipse SUMO netedit Version 1.12.0
-->

<routes xmlns:xsi="http://www.w3.org/2001/XMLSchema-instance" xsi:noNamespaceSchemaLocation="http://sumo.dlr.de/xsd/routes_file.xsd">
    <flow id="f_0" begin="0.00" departLane="random" arrivalLane="random" color="139,235,174" from="68295186#0.3570" to="68295186#4" via="68295186#1 68295186#2 68295186#3" end="3600.00" vehsPerHour="1800.00"/>
</routes>
